loadshapes/Loads_FeederC.dss
! Arquivo Load - Feeder C
New Load.Load_3002 phases=3 conn=wye bus1=T_bus3002_L.1.2.3.0 kV=0.208 kW=36.204 kvar=14.309 daily=Load_Bus 3002_P qmult=Load_Bus 3002_Q model=1
New Load.Load_3004 phases=3 conn=wye bus1=T_bus3004_L.1.2.3.0 kV=0.208 kW=13.144 kvar=5.791 daily=Load_Bus 3004_P qmult=Load_Bus 3004_Q model=1
New Load.Load_3006 phases=3 conn=wye bus1=T_bus3006_L.1.2.3.0 kV=0.208 kW=28.502 kvar=13.512 daily=Load_Bus 3006_P qmult=Load_Bus 3006_Q model=1
New Load.Load_3007 phases=3 conn=wye bus1=T_bus3007_L.1.2.3.0 kV=0.208 kW=43.500 kvar=21.068 daily=Load_Bus 3007_P qmult=Load_Bus 3007_Q model=1
New Load.Load_3009 phases=2 conn=wye bus1=T_bus3009_L.1.2 kV=0.208 kW=26.993 kvar=12.298 daily=Load_Bus 3009_P qmult=Load_Bus 3009_Q model=1
New Load.Load_3010 phases=2 conn=wye bus1=T_bus3010_L.1.2 kV=0.208 kW=21.071 kvar=9.277 daily=Load_Bus 3010_P qmult=Load_Bus 3010_Q model=1
New Load.Load_3011 phases=2 conn=wye bus1=T_bus3011_L.1.2 kV=0.208 kW=27.459 kvar=11.914 daily=Load_Bus 3011_P qmult=Load_Bus 3011_Q model=1
New Load.Load_3012 phases=2 conn=wye bus1=T_bus3012_L.1.2 kV=0.208 kW=30.041 kvar=14.549 daily=Load_Bus 3012_P qmult=Load_Bus 3012_Q model=1
New Load.Load_3013 phases=2 conn=wye bus1=T_bus3013_L.1.2 kV=0.208 kW=16.702 kvar=6.712 daily=Load_Bus 3013_P qmult=Load_Bus 3013_Q model=1
New Load.Load_3014 phases=2 conn=wye bus1=T_bus3014_L.1.2 kV=0.208 kW=24.149 kvar=10.315 daily=Load_Bus 3014_P qmult=Load_Bus 3014_Q model=1
New Load.Load_3016 phases=2 conn=wye bus1=T_bus3016_L.1.2 kV=0.208 kW=25.038 kvar=10.622 daily=Load_Bus 3016_P qmult=Load_Bus 3016_Q model=1
New Load.Load_3017 phases=2 conn=wye bus1=T_bus3017_L.1.2 kV=0.208 kW=40.198 kvar=19.469 daily=Load_Bus 3017_P qmult=Load_Bus 3017_Q model=1
New Load.Load_3018 phases=2 conn=wye bus1=T_bus3018_L.1.2 kV=0.208 kW=28.056 kvar=12.783 daily=Load_Bus 3018_P qmult=Load_Bus 3018_Q model=1
New Load.Load_3019 phases=2 conn=wye bus1=T_bus3019_L.1.2 kV=0.208 kW=26.066 kvar=11.211 daily=Load_Bus 3019_P qmult=Load_Bus 3019_Q model=1
New Load.Load_3020 phases=2 conn=wye bus1=T_bus3020_L.1.2 kV=0.208 kW=37.355 kvar=17.307 daily=Load_Bus 3020_P qmult=Load_Bus 3020_Q model=1
New Load.Load_3021 phases=2 conn=wye bus1=T_bus3021_L.1.2 kV=0.208 kW=24.820 kvar=11.443 daily=Load_Bus 3021_P qmult=Load_Bus 3021_Q model=1
New Load.Load_3023 phases=2 conn=wye bus1=T_bus3023_L.1.2 kV=0.208 kW=32.996 kvar=15.145 daily=Load_Bus 3023_P qmult=Load_Bus 3023_Q model=1
New Load.Load_3024 phases=2 conn=wye bus1=T_bus3024_L.1.2 kV=0.208 kW=31.125 kvar=13.854 daily=Load_Bus 3024_P qmult=Load_Bus 3024_Q model=1
New Load.Load_3025 phases=2 conn=wye bus1=T_bus3025_L.1.2 kV=0.208 kW=31.599 kvar=13.846 daily=Load_Bus 3025_P qmult=Load_Bus 3025_Q model=1
New Load.Load_3026 phases=2 conn=wye bus1=T_bus3026_L.1.2 kV=0.208 kW=27.653 kvar=12.138 daily=Load_Bus 3026_P qmult=Load_Bus 3026_Q model=1
New Load.Load_3027 phases=2 conn=wye bus1=T_bus3027_L.1.2 kV=0.208 kW=33.834 kvar=14.218 daily=Load_Bus 3027_P qmult=Load_Bus 3027_Q model=1
New Load.Load_3028 phases=2 conn=wye bus1=T_bus3028_L.1.2 kV=0.208 kW=41.873 kvar=15.442 daily=Load_Bus 3028_P qmult=Load_Bus 3028_Q model=1
New Load.Load_3029 phases=2 conn=wye bus1=T_bus3029_L.1.2 kV=0.208 kW=19.598 kvar=8.349 daily=Load_Bus 3029_P qmult=Load_Bus 3029_Q model=1
New Load.Load_3031 phases=3 conn=wye bus1=T_bus3031_L.1.2.3.0 kV=0.208 kW=26.517 kvar=12.843 daily=Load_Bus 3031_P qmult=Load_Bus 3031_Q model=1
New Load.Load_3032 phases=3 conn=wye bus1=T_bus3032_L.1.2.3.0 kV=0.208 kW=27.876 kvar=12.746 daily=Load_Bus 3032_P qmult=Load_Bus 3032_Q model=1
New Load.Load_3033 phases=3 conn=wye bus1=T_bus3033_L.1.2.3.0 kV=0.208 kW=32.387 kvar=14.533 daily=Load_Bus 3033_P qmult=Load_Bus 3033_Q model=1
New Load.Load_3034 phases=3 conn=wye bus1=T_bus3034_L.1.2.3.0 kV=0.208 kW=28.480 kvar=12.921 daily=Load_Bus 3034_P qmult=Load_Bus 3034_Q model=1
New Load.Load_3035 phases=3 conn=wye bus1=T_bus3035_L.1.2.3.0 kV=0.208 kW=37.647 kvar=17.133 daily=Load_Bus 3035_P qmult=Load_Bus 3035_Q model=1
New Load.Load_3036 phases=3 conn=wye bus1=T_bus3036_L.1.2.3.0 kV=0.208 kW=22.728 kvar=8.566 daily=Load_Bus 3036_P qmult=Load_Bus 3036_Q model=1
New Load.Load_3037 phases=3 conn=wye bus1=T_bus3037_L.1.2.3.0 kV=0.208 kW=25.742 kvar=11.519 daily=Load_Bus 3037_P qmult=Load_Bus 3037_Q model=1
New Load.Load_3038 phases=3 conn=wye bus1=T_bus3038_L.1.2.3.0 kV=0.208 kW=24.682 kvar=9.770 daily=Load_Bus 3038_P qmult=Load_Bus 3038_Q model=1
New Load.Load_3039 phases=3 conn=wye bus1=T_bus3039_L.1.2.3.0 kV=0.208 kW=26.151 kvar=12.666 daily=Load_Bus 3039_P qmult=Load_Bus 3039_Q model=1
New Load.Load_3041 phases=2 conn=wye bus1=T_bus3041_L.1.2 kV=0.208 kW=31.852 kvar=13.369 daily=Load_Bus 3041_P qmult=Load_Bus 3041_Q model=1
New Load.Load_3042 phases=2 conn=wye bus1=T_bus3042_L.1.2 kV=0.208 kW=22.882 kvar=10.425 daily=Load_Bus 3042_P qmult=Load_Bus 3042_Q model=1
New Load.Load_3043 phases=2 conn=wye bus1=T_bus3043_L.1.2 kV=0.208 kW=19.321 kvar=9.241 daily=Load_Bus 3043_P qmult=Load_Bus 3043_Q model=1
New Load.Load_3044 phases=2 conn=wye bus1=T_bus3044_L.1.2 kV=0.208 kW=25.931 kvar=11.472 daily=Load_Bus 3044_P qmult=Load_Bus 3044_Q model=1
New Load.Load_3045 phases=2 conn=wye bus1=T_bus3045_L.1.2 kV=0.208 kW=24.021 kvar=11.334 daily=Load_Bus 3045_P qmult=Load_Bus 3045_Q model=1
New Load.Load_3047 phases=3 conn=wye bus1=T_bus3047_L.1.2.3.0 kV=0.208 kW=35.285 kvar=15.031 daily=Load_Bus 3047_P qmult=Load_Bus 3047_Q model=1
New Load.Load_3048 phases=3 conn=wye bus1=T_bus3048_L.1.2.3.0 kV=0.208 kW=11.573 kvar=4.507 daily=Load_Bus 3048_P qmult=Load_Bus 3048_Q model=1
New Load.Load_3049 phases=3 conn=wye bus1=T_bus3049_L.1.2.3.0 kV=0.208 kW=20.861 kvar=8.680 daily=Load_Bus 3049_P qmult=Load_Bus 3049_Q model=1
New Load.Load_3050 phases=3 conn=wye bus1=T_bus3050_L.1.2.3.0 kV=0.208 kW=16.900 kvar=8.037 daily=Load_Bus 3050_P qmult=Load_Bus 3050_Q model=1
New Load.Load_3051 phases=3 conn=wye bus1=T_bus3051_L.1.2.3.0 kV=0.208 kW=11.252 kvar=4.695 daily=Load_Bus 3051_P qmult=Load_Bus 3051_Q model=1
New Load.Load_3052 phases=3 conn=wye bus1=T_bus3052_L.1.2.3.0 kV=0.208 kW=24.469 kvar=11.315 daily=Load_Bus 3052_P qmult=Load_Bus 3052_Q model=1
New Load.Load_3054 phases=3 conn=wye bus1=T_bus3054_L.1.2.3.0 kV=0.208 kW=9.130 kvar=3.530 daily=Load_Bus 3054_P qmult=Load_Bus 3054_Q model=1
New Load.Load_3056 phases=2 conn=wye bus1=T_bus3056_L.1.2 kV=0.208 kW=19.849 kvar=7.905 daily=Load_Bus 3056_P qmult=Load_Bus 3056_Q model=1
New Load.Load_3057 phases=2 conn=wye bus1=T_bus3057_L.1.2 kV=0.208 kW=17.411 kvar=7.767 daily=Load_Bus 3057_P qmult=Load_Bus 3057_Q model=1
New Load.Load_3058 phases=2 conn=wye bus1=T_bus3058_L.1.2 kV=0.208 kW=16.202 kvar=7.377 daily=Load_Bus 3058_P qmult=Load_Bus 3058_Q model=1
New Load.Load_3059 phases=2 conn=wye bus1=T_bus3059_L.1.2 kV=0.208 kW=21.339 kvar=9.795 daily=Load_Bus 3059_P qmult=Load_Bus 3059_Q model=1
New Load.Load_3060 phases=2 conn=wye bus1=T_bus3060_L.1.2 kV=0.208 kW=19.693 kvar=9.184 daily=Load_Bus 3060_P qmult=Load_Bus 3060_Q model=1
New Load.Load_3061 phases=2 conn=wye bus1=T_bus3061_L.1.2 kV=0.208 kW=11.180 kvar=4.817 daily=Load_Bus 3061_P qmult=Load_Bus 3061_Q model=1
New Load.Load_3062 phases=2 conn=wye bus1=T_bus3062_L.1.2 kV=0.208 kW=16.938 kvar=8.100 daily=Load_Bus 3062_P qmult=Load_Bus 3062_Q model=1
New Load.Load_3063 phases=2 conn=wye bus1=T_bus3063_L.1.2 kV=0.208 kW=21.654 kvar=8.167 daily=Load_Bus 3063_P qmult=Load_Bus 3063_Q model=1
New Load.Load_3064 phases=2 conn=wye bus1=T_bus3064_L.1.2 kV=0.208 kW=29.585 kvar=11.693 daily=Load_Bus 3064_P qmult=Load_Bus 3064_Q model=1
New Load.Load_3065 phases=2 conn=wye bus1=T_bus3065_L.1.2 kV=0.208 kW=23.373 kvar=10.620 daily=Load_Bus 3065_P qmult=Load_Bus 3065_Q model=1
New Load.Load_3066 phases=2 conn=wye bus1=T_bus3066_L.1.2 kV=0.208 kW=12.242 kvar=5.237 daily=Load_Bus 3066_P qmult=Load_Bus 3066_Q model=1
New Load.Load_3067 phases=2 conn=wye bus1=T_bus3067_L.1.2 kV=0.208 kW=30.161 kvar=13.319 daily=Load_Bus 3067_P qmult=Load_Bus 3067_Q model=1
New Load.Load_3070 phases=3 conn=wye bus1=T_bus3070_L.1.2.3.0 kV=0.208 kW=14.690 kvar=5.599 daily=Load_Bus 3070_P qmult=Load_Bus 3070_Q model=1
New Load.Load_3071 phases=3 conn=wye bus1=T_bus3071_L.1.2.3.0 kV=0.208 kW=19.767 kvar=7.127 daily=Load_Bus 3071_P qmult=Load_Bus 3071_Q model=1
New Load.Load_3072 phases=3 conn=wye bus1=T_bus3072_L.1.2.3.0 kV=0.208 kW=18.702 kvar=7.704 daily=Load_Bus 3072_P qmult=Load_Bus 3072_Q model=1
New Load.Load_3073 phases=3 conn=wye bus1=T_bus3073_L.1.2.3.0 kV=0.208 kW=17.859 kvar=7.706 daily=Load_Bus 3073_P qmult=Load_Bus 3073_Q model=1
New Load.Load_3074 phases=3 conn=wye bus1=T_bus3074_L.1.2.3.0 kV=0.208 kW=18.954 kvar=9.180 daily=Load_Bus 3074_P qmult=Load_Bus 3074_Q model=1
New Load.Load_3077 phases=3 conn=wye bus1=T_bus3077_L.1.2.3.0 kV=0.208 kW=274.291 kvar=132.845 daily=Load_Bus 3077_P qmult=Load_Bus 3077_Q model=1
New Load.Load_3078 phases=3 conn=wye bus1=T_bus3078_L.1.2.3.0 kV=0.208 kW=12.400 kvar=5.836 daily=Load_Bus 3078_P qmult=Load_Bus 3078_Q model=1
New Load.Load_3081 phases=3 conn=wye bus1=T_bus3081_L.1.2.3.0 kV=0.208 kW=28.011 kvar=12.597 daily=Load_Bus 3081_P qmult=Load_Bus 3081_Q model=1
New Load.Load_3083 phases=2 conn=wye bus1=T_bus3083_L.1.2 kV=0.208 kW=19.378 kvar=8.829 daily=Load_Bus 3083_P qmult=Load_Bus 3083_Q model=1
New Load.Load_3084 phases=2 conn=wye bus1=T_bus3084_L.1.2 kV=0.208 kW=19.433 kvar=9.412 daily=Load_Bus 3084_P qmult=Load_Bus 3084_Q model=1
New Load.Load_3085 phases=2 conn=wye bus1=T_bus3085_L.1.2 kV=0.208 kW=28.191 kvar=11.505 daily=Load_Bus 3085_P qmult=Load_Bus 3085_Q model=1
New Load.Load_3086 phases=2 conn=wye bus1=T_bus3086_L.1.2 kV=0.208 kW=12.886 kvar=5.777 daily=Load_Bus 3086_P qmult=Load_Bus 3086_Q model=1
New Load.Load_3087 phases=2 conn=wye bus1=T_bus3087_L.1.2 kV=0.208 kW=25.893 kvar=11.586 daily=Load_Bus 3087_P qmult=Load_Bus 3087_Q model=1
New Load.Load_3088 phases=2 conn=wye bus1=T_bus3088_L.1.2 kV=0.208 kW=24.450 kvar=10.109 daily=Load_Bus 3088_P qmult=Load_Bus 3088_Q model=1
New Load.Load_3089 phases=2 conn=wye bus1=T_bus3089_L.1.2 kV=0.208 kW=20.967 kvar=8.932 daily=Load_Bus 3089_P qmult=Load_Bus 3089_Q model=1
New Load.Load_3090 phases=2 conn=wye bus1=T_bus3090_L.1.2 kV=0.208 kW=22.463 kvar=8.659 daily=Load_Bus 3090_P qmult=Load_Bus 3090_Q model=1
New Load.Load_3091 phases=2 conn=wye bus1=T_bus3091_L.1.2 kV=0.208 kW=13.577 kvar=5.166 daily=Load_Bus 3091_P qmult=Load_Bus 3091_Q model=1
New Load.Load_3093 phases=2 conn=wye bus1=T_bus3093_L.1.2 kV=0.208 kW=21.003 kvar=9.418 daily=Load_Bus 3093_P qmult=Load_Bus 3093_Q model=1
New Load.Load_3094 phases=2 conn=wye bus1=T_bus3094_L.1.2 kV=0.208 kW=17.986 kvar=8.711 daily=Load_Bus 3094_P qmult=Load_Bus 3094_Q model=1
New Load.Load_3095 phases=2 conn=wye bus1=T_bus3095_L.1.2 kV=0.208 kW=26.144 kvar=11.045 daily=Load_Bus 3095_P qmult=Load_Bus 3095_Q model=1
New Load.Load_3096 phases=2 conn=wye bus1=T_bus3096_L.1.2 kV=0.208 kW=25.015 kvar=12.059 daily=Load_Bus 3096_P qmult=Load_Bus 3096_Q model=1
New Load.Load_3097 phases=2 conn=wye bus1=T_bus3097_L.1.2 kV=0.208 kW=27.400 kvar=11.565 daily=Load_Bus 3097_P qmult=Load_Bus 3097_Q model=1
New Load.Load_3098 phases=2 conn=wye bus1=T_bus3098_L.1.2 kV=0.208 kW=39.261 kvar=15.781 daily=Load_Bus 3098_P qmult=Load_Bus 3098_Q model=1
New Load.Load_3099 phases=2 conn=wye bus1=T_bus3099_L.1.2 kV=0.208 kW=21.380 kvar=9.199 daily=Load_Bus 3099_P qmult=Load_Bus 3099_Q model=1
New Load.Load_3101 phases=2 conn=wye bus1=T_bus3101_L.1.2 kV=0.208 kW=18.535 kvar=8.445 daily=Load_Bus 3101_P qmult=Load_Bus 3101_Q model=1
New Load.Load_3102 phases=2 conn=wye bus1=T_bus3102_L.1.2 kV=0.208 kW=21.503 kvar=9.700 daily=Load_Bus 3102_P qmult=Load_Bus 3102_Q model=1
New Load.Load_3103 phases=2 conn=wye bus1=T_bus3103_L.1.2 kV=0.208 kW=30.100 kvar=13.077 daily=Load_Bus 3103_P qmult=Load_Bus 3103_Q model=1
New Load.Load_3104 phases=2 conn=wye bus1=T_bus3104_L.1.2 kV=0.208 kW=69.171 kvar=31.014 daily=Load_Bus 3104_P qmult=Load_Bus 3104_Q model=1
New Load.Load_3105 phases=2 conn=wye bus1=T_bus3105_L.1.2 kV=0.208 kW=17.564 kvar=7.648 daily=Load_Bus 3105_P qmult=Load_Bus 3105_Q model=1
New Load.Load_3106 phases=2 conn=wye bus1=T_bus3106_L.1.2 kV=0.208 kW=64.127 kvar=27.318 daily=Load_Bus 3106_P qmult=Load_Bus 3106_Q model=1
New Load.Load_3108 phases=2 conn=wye bus1=T_bus3108_L.1.2 kV=0.208 kW=14.475 kvar=7.003 daily=Load_Bus 3108_P qmult=Load_Bus 3108_Q model=1
New Load.Load_3109 phases=2 conn=wye bus1=T_bus3109_L.1.2 kV=0.208 kW=27.203 kvar=12.049 daily=Load_Bus 3109_P qmult=Load_Bus 3109_Q model=1
New Load.Load_3110 phases=2 conn=wye bus1=T_bus3110_L.1.2 kV=0.208 kW=36.456 kvar=14.606 daily=Load_Bus 3110_P qmult=Load_Bus 3110_Q model=1
New Load.Load_3111 phases=2 conn=wye bus1=T_bus3111_L.1.2 kV=0.208 kW=38.916 kvar=18.848 daily=Load_Bus 3111_P qmult=Load_Bus 3111_Q model=1
New Load.Load_3112 phases=2 conn=wye bus1=T_bus3112_L.1.2 kV=0.208 kW=36.444 kvar=15.414 daily=Load_Bus 3112_P qmult=Load_Bus 3112_Q model=1
New Load.Load_3114 phases=2 conn=wye bus1=T_bus3114_L.1.2 kV=0.208 kW=26.209 kvar=9.888 daily=Load_Bus 3114_P qmult=Load_Bus 3114_Q model=1
New Load.Load_3115 phases=2 conn=wye bus1=T_bus3115_L.1.2 kV=0.208 kW=33.084 kvar=13.815 daily=Load_Bus 3115_P qmult=Load_Bus 3115_Q model=1
New Load.Load_3116 phases=2 conn=wye bus1=T_bus3116_L.1.2 kV=0.208 kW=22.940 kvar=10.921 daily=Load_Bus 3116_P qmult=Load_Bus 3116_Q model=1
New Load.Load_3117 phases=2 conn=wye bus1=T_bus3117_L.1.2 kV=0.208 kW=15.638 kvar=6.207 daily=Load_Bus 3117_P qmult=Load_Bus 3117_Q model=1
New Load.Load_3120 phases=2 conn=wye bus1=T_bus3120_L.1.2 kV=0.208 kW=20.827 kvar=8.703 daily=Load_Bus 3120_P qmult=Load_Bus 3120_Q model=1
New Load.Load_3121 phases=2 conn=wye bus1=T_bus3121_L.1.2 kV=0.208 kW=20.303 kvar=8.698 daily=Load_Bus 3121_P qmult=Load_Bus 3121_Q model=1
New Load.Load_3122 phases=2 conn=wye bus1=T_bus3122_L.1.2 kV=0.208 kW=17.864 kvar=8.076 daily=Load_Bus 3122_P qmult=Load_Bus 3122_Q model=1
New Load.Load_3123 phases=2 conn=wye bus1=T_bus3123_L.1.2 kV=0.208 kW=24.506 kvar=10.587 daily=Load_Bus 3123_P qmult=Load_Bus 3123_Q model=1
New Load.Load_3124 phases=2 conn=wye bus1=T_bus3124_L.1.2 kV=0.208 kW=16.423 kvar=6.466 daily=Load_Bus 3124_P qmult=Load_Bus 3124_Q model=1
New Load.Load_3125 phases=2 conn=wye bus1=T_bus3125_L.1.2 kV=0.208 kW=4.301 kvar=1.850 daily=Load_Bus 3125_P qmult=Load_Bus 3125_Q model=1
New Load.Load_3126 phases=2 conn=wye bus1=T_bus3126_L.1.2 kV=0.208 kW=23.176 kvar=9.507 daily=Load_Bus 3126_P qmult=Load_Bus 3126_Q model=1
New Load.Load_3127 phases=2 conn=wye bus1=T_bus3127_L.1.2 kV=0.208 kW=30.508 kvar=13.095 daily=Load_Bus 3127_P qmult=Load_Bus 3127_Q model=1
New Load.Load_3128 phases=2 conn=wye bus1=T_bus3128_L.1.2 kV=0.208 kW=12.191 kvar=5.554 daily=Load_Bus 3128_P qmult=Load_Bus 3128_Q model=1
New Load.Load_3129 phases=2 conn=wye bus1=T_bus3129_L.1.2 kV=0.208 kW=17.736 kvar=7.556 daily=Load_Bus 3129_P qmult=Load_Bus 3129_Q model=1
New Load.Load_3130 phases=2 conn=wye bus1=T_bus3130_L.1.2 kV=0.208 kW=15.409 kvar=5.593 daily=Load_Bus 3130_P qmult=Load_Bus 3130_Q model=1
New Load.Load_3131 phases=2 conn=wye bus1=T_bus3131_L.1.2 kV=0.208 kW=27.346 kvar=12.459 daily=Load_Bus 3131_P qmult=Load_Bus 3131_Q model=1
New Load.Load_3132 phases=2 conn=wye bus1=T_bus3132_L.1.2 kV=0.208 kW=32.601 kvar=12.079 daily=Load_Bus 3132_P qmult=Load_Bus 3132_Q model=1
New Load.Load_3134 phases=2 conn=wye bus1=T_bus3134_L.1.2 kV=0.208 kW=38.308 kvar=17.875 daily=Load_Bus 3134_P qmult=Load_Bus 3134_Q model=1
New Load.Load_3135 phases=2 conn=wye bus1=T_bus3135_L.1.2 kV=0.208 kW=24.338 kvar=10.735 daily=Load_Bus 3135_P qmult=Load_Bus 3135_Q model=1
New Load.Load_3136 phases=2 conn=wye bus1=T_bus3136_L.1.2 kV=0.208 kW=42.143 kvar=15.320 daily=Load_Bus 3136_P qmult=Load_Bus 3136_Q model=1
New Load.Load_3137 phases=2 conn=wye bus1=T_bus3137_L.1.2 kV=0.208 kW=44.569 kvar=18.361 daily=Load_Bus 3137_P qmult=Load_Bus 3137_Q model=1
New Load.Load_3138 phases=2 conn=wye bus1=T_bus3138_L.1.2 kV=0.208 kW=39.737 kvar=15.512 daily=Load_Bus 3138_P qmult=Load_Bus 3138_Q model=1
New Load.Load_3141 phases=2 conn=wye bus1=T_bus3141_L.1.2 kV=0.208 kW=22.791 kvar=11.038 daily=Load_Bus 3141_P qmult=Load_Bus 3141_Q model=1
New Load.Load_3142 phases=2 conn=wye bus1=T_bus3142_L.1.2 kV=0.208 kW=20.495 kvar=7.498 daily=Load_Bus 3142_P qmult=Load_Bus 3142_Q model=1
New Load.Load_3143 phases=2 conn=wye bus1=T_bus3143_L.1.2 kV=0.208 kW=29.949 kvar=14.505 daily=Load_Bus 3143_P qmult=Load_Bus 3143_Q model=1
New Load.Load_3144 phases=2 conn=wye bus1=T_bus3144_L.1.2 kV=0.208 kW=6.320 kvar=2.447 daily=Load_Bus 3144_P qmult=Load_Bus 3144_Q model=1
New Load.Load_3145 phases=2 conn=wye bus1=T_bus3145_L.1.2 kV=0.208 kW=19.689 kvar=9.500 daily=Load_Bus 3145_P qmult=Load_Bus 3145_Q model=1
New Load.Load_3146 phases=2 conn=wye bus1=T_bus3146_L.1.2 kV=0.208 kW=16.403 kvar=5.726 daily=Load_Bus 3146_P qmult=Load_Bus 3146_Q model=1
New Load.Load_3147 phases=2 conn=wye bus1=T_bus3147_L.1.2 kV=0.208 kW=24.307 kvar=11.075 daily=Load_Bus 3147_P qmult=Load_Bus 3147_Q model=1
New Load.Load_3148 phases=2 conn=wye bus1=T_bus3148_L.1.2 kV=0.208 kW=32.137 kvar=14.803 daily=Load_Bus 3148_P qmult=Load_Bus 3148_Q model=1
New Load.Load_3149 phases=2 conn=wye bus1=T_bus3149_L.1.2 kV=0.208 kW=18.657 kvar=9.036 daily=Load_Bus 3149_P qmult=Load_Bus 3149_Q model=1
New Load.Load_3150 phases=2 conn=wye bus1=T_bus3150_L.1.2 kV=0.208 kW=11.476 kvar=4.536 daily=Load_Bus 3150_P qmult=Load_Bus 3150_Q model=1
New Load.Load_3151 phases=2 conn=wye bus1=T_bus3151_L.1.2 kV=0.208 kW=10.697 kvar=4.756 daily=Load_Bus 3151_P qmult=Load_Bus 3151_Q model=1
New Load.Load_3152 phases=2 conn=wye bus1=T_bus3152_L.1.2 kV=0.208 kW=12.130 kvar=4.763 daily=Load_Bus 3152_P qmult=Load_Bus 3152_Q model=1
New Load.Load_3153 phases=2 conn=wye bus1=T_bus3153_L.1.2 kV=0.208 kW=28.978 kvar=13.144 daily=Load_Bus 3153_P qmult=Load_Bus 3153_Q model=1
New Load.Load_3154 phases=2 conn=wye bus1=T_bus3154_L.1.2 kV=0.208 kW=15.377 kvar=6.677 daily=Load_Bus 3154_P qmult=Load_Bus 3154_Q model=1
New Load.Load_3155 phases=2 conn=wye bus1=T_bus3155_L.1.2 kV=0.208 kW=15.695 kvar=7.601 daily=Load_Bus 3155_P qmult=Load_Bus 3155_Q model=1
New Load.Load_3157 phases=2 conn=wye bus1=T_bus3157_L.1.2 kV=0.208 kW=31.223 kvar=14.806 daily=Load_Bus 3157_P qmult=Load_Bus 3157_Q model=1
New Load.Load_3158 phases=2 conn=wye bus1=T_bus3158_L.1.2 kV=0.208 kW=33.402 kvar=14.229 daily=Load_Bus 3158_P qmult=Load_Bus 3158_Q model=1
New Load.Load_3159 phases=2 conn=wye bus1=T_bus3159_L.1.2 kV=0.208 kW=30.795 kvar=13.248 daily=Load_Bus 3159_P qmult=Load_Bus 3159_Q model=1
New Load.Load_3160 phases=2 conn=wye bus1=T_bus3160_L.1.2 kV=0.208 kW=16.197 kvar=6.580 daily=Load_Bus 3160_P qmult=Load_Bus 3160_Q model=1
New Load.Load_3161 phases=2 conn=wye bus1=T_bus3161_L.1.2 kV=0.208 kW=13.444 kvar=6.125 daily=Load_Bus 3161_P qmult=Load_Bus 3161_Q model=1
New Load.Load_3162 phases=2 conn=wye bus1=T_bus3162_L.1.2 kV=0.208 kW=13.828 kvar=6.300 daily=Load_Bus 3162_P qmult=Load_Bus 3162_Q model=1
